[TITLE]
GoldSim-SWMM Treatment Train Integration Test Model
This model demonstrates the complete treatment train with all required elements

[OPTIONS]
FLOW_UNITS           CFS
INFILTRATION         GREEN_AMPT
FLOW_ROUTING         DYNWAVE
START_DATE           1/1/2000
START_TIME           00:00:00
END_DATE             1/1/2000
END_TIME             02:00:00
SWEEP_START          1/1
SWEEP_END            12/31
DRY_DAYS             0
REPORT_STEP          00:05:00
ROUTING_STEP         00:01:00

[RAINGAGES]
;Name  Type      TimeInt  SnowCatch  DataSource  SeriesName
RG1    INTENSITY 01:00    1.0        TIMESERIES  TS1

[SUBCATCHMENTS]
;Name  RainGage  Outlet  Area  %Imperv  Width  %Slope  CurbLen
S1     RG1       ST1     10    50       500    1       0

[SUBAREAS]
;Subcatch  N-Imperv  N-Perv  S-Imperv  S-Perv  PctZero  RouteTo
S1         0.01      0.1     0.05      0.05    25       OUTLET

[INFILTRATION]
;Subcatch  Suction  HydCon  IMDmax  (4th param)
S1         0.5      0.05    3       0

[STORAGE]
;Name  Elev  MaxDepth  InitDepth  Shape       Params  SurchargeDepth  Fevap  Psi  Ksat
ST1    50    1000      0          FUNCTIONAL  1000    0               0      0
ST2    45    1500      0          FUNCTIONAL  1500    0               0      0
ST3    40    2000      0          FUNCTIONAL  2000    0               0      0

[OUTFALLS]
;Name  Elev  Type
J2     0     FREE

[CONDUITS]
;Name  FromNode  ToNode  Length  Roughness  InOffset  OutOffset  InitFlow  MaxFlow
C1     ST1       ST2     100     0.01       0         0          0         0
C2     ST2       ST3     100     0.01       0         0          0         0
C3     ST3       J2      100     0.01       0         0          0         0

[XSECTIONS]
;Link  Shape      Geom1  Geom2  Geom3  Geom4  Barrels
C1     CIRCULAR   1      0      0      0      1
C2     CIRCULAR   1      0      0      0      1
C3     CIRCULAR   1      0      0      0      1

[TIMESERIES]
;Name  Date  Time   Value
TS1           0:00   0.0
TS1           1:00   0.5
TS1           2:00   0.0

[REPORT]
SUBCATCHMENTS ALL
NODES ALL
LINKS ALL

[MAP]
DIMENSIONS 0 0 10000 10000

[COORDINATES]
;Node  X     Y
ST1    2500  5000
ST2    5000  5000
ST3    6500  5000
J2     8000  5000

[Polygons]
;Subcatch  X     Y
S1         1500  4000
S1         1500  6000
S1         2000  6000
S1         2000  4000

